# generated using pymatgen
data_GdAl2
_symmetry_space_group_name_H-M   'P 1'
_cell_length_a   7.88438782
_cell_length_b   7.88438782
_cell_length_c   7.88438782
_cell_angle_alpha   90.00000000
_cell_angle_beta   90.00000000
_cell_angle_gamma   90.00000000
_symmetry_Int_Tables_number   1
_chemical_formula_structural   GdAl2
_chemical_formula_sum   'Gd8 Al16'
_cell_volume   490.12170494
_cell_formula_units_Z   8
loop_
 _symmetry_equiv_pos_site_id
 _symmetry_equiv_pos_as_xyz
  1  'x, y, z'
loop_
 _atom_site_type_symbol
 _atom_site_label
 _atom_site_symmetry_multiplicity
 _atom_site_fract_x
 _atom_site_fract_y
 _atom_site_fract_z
 _atom_site_occupancy
  Gd  Gd0  1  0.00000000  0.50000000  0.00000000  1
  Gd  Gd1  1  0.25000000  0.75000000  0.25000000  1
  Gd  Gd2  1  0.00000000  0.00000000  0.50000000  1
  Gd  Gd3  1  0.25000000  0.25000000  0.75000000  1
  Gd  Gd4  1  0.50000000  0.50000000  0.50000000  1
  Gd  Gd5  1  0.75000000  0.75000000  0.75000000  1
  Gd  Gd6  1  0.50000000  0.00000000  0.00000000  1
  Gd  Gd7  1  0.75000000  0.25000000  0.25000000  1
  Al  Al8  1  0.12500000  0.12500000  0.12500000  1
  Al  Al9  1  0.12500000  0.87500000  0.87500000  1
  Al  Al10  1  0.87500000  0.12500000  0.87500000  1
  Al  Al11  1  0.87500000  0.37500000  0.62500000  1
  Al  Al12  1  0.12500000  0.62500000  0.62500000  1
  Al  Al13  1  0.12500000  0.37500000  0.37500000  1
  Al  Al14  1  0.87500000  0.62500000  0.37500000  1
  Al  Al15  1  0.87500000  0.87500000  0.12500000  1
  Al  Al16  1  0.62500000  0.12500000  0.62500000  1
  Al  Al17  1  0.62500000  0.87500000  0.37500000  1
  Al  Al18  1  0.37500000  0.12500000  0.37500000  1
  Al  Al19  1  0.37500000  0.37500000  0.12500000  1
  Al  Al20  1  0.62500000  0.62500000  0.12500000  1
  Al  Al21  1  0.62500000  0.37500000  0.87500000  1
  Al  Al22  1  0.37500000  0.62500000  0.87500000  1
  Al  Al23  1  0.37500000  0.87500000  0.62500000  1
