# generated using pymatgen
data_LiAl
_symmetry_space_group_name_H-M   'P 1'
_cell_length_a   6.32678542
_cell_length_b   6.32678542
_cell_length_c   6.32678542
_cell_angle_alpha   90.00000000
_cell_angle_beta   90.00000000
_cell_angle_gamma   90.00000000
_symmetry_Int_Tables_number   1
_chemical_formula_structural   LiAl
_chemical_formula_sum   'Li8 Al8'
_cell_volume   253.24991934
_cell_formula_units_Z   8
loop_
 _symmetry_equiv_pos_site_id
 _symmetry_equiv_pos_as_xyz
  1  'x, y, z'
loop_
 _atom_site_type_symbol
 _atom_site_label
 _atom_site_symmetry_multiplicity
 _atom_site_fract_x
 _atom_site_fract_y
 _atom_site_fract_z
 _atom_site_occupancy
  Li  Li0  1  0.25000000  0.25000000  0.25000000  1
  Li  Li1  1  0.50000000  0.50000000  0.00000000  1
  Li  Li2  1  0.25000000  0.75000000  0.75000000  1
  Li  Li3  1  0.50000000  0.00000000  0.50000000  1
  Li  Li4  1  0.75000000  0.25000000  0.75000000  1
  Li  Li5  1  0.00000000  0.50000000  0.50000000  1
  Li  Li6  1  0.75000000  0.75000000  0.25000000  1
  Li  Li7  1  0.00000000  0.00000000  0.00000000  1
  Al  Al8  1  0.25000000  0.75000000  0.25000000  1
  Al  Al9  1  0.50000000  0.00000000  0.00000000  1
  Al  Al10  1  0.25000000  0.25000000  0.75000000  1
  Al  Al11  1  0.50000000  0.50000000  0.50000000  1
  Al  Al12  1  0.75000000  0.75000000  0.75000000  1
  Al  Al13  1  0.00000000  0.00000000  0.50000000  1
  Al  Al14  1  0.75000000  0.25000000  0.25000000  1
  Al  Al15  1  0.00000000  0.50000000  0.00000000  1
