# generated using pymatgen
data_Li2MnO3
_symmetry_space_group_name_H-M   C2/m
_cell_length_a   4.937
_cell_length_b   8.532
_cell_length_c   5.03
_cell_angle_alpha   90.00000000
_cell_angle_beta   109.46
_cell_angle_gamma   90.00000000
_symmetry_Int_Tables_number   12
_chemical_formula_structural   Li2MnO3
_chemical_formula_sum   'Li8 Mn4 O12'
_cell_volume   195.46738340
_cell_formula_units_Z   4
loop_
 _symmetry_equiv_pos_site_id
 _symmetry_equiv_pos_as_xyz
  1  'x, y, z'
  2  '-x, -y, -z'
  3  '-x, y, -z'
  4  'x, -y, z'
  5  'x+1/2, y+1/2, z'
  6  '-x+1/2, -y+1/2, -z'
  7  '-x+1/2, y+1/2, -z'
  8  'x+1/2, -y+1/2, z'
loop_
 _atom_type_symbol
 _atom_type_oxidation_number
  Li+  1.0
  Mn4+  4.0
  O2-  -2.0
loop_
 _atom_site_type_symbol
 _atom_site_label
 _atom_site_symmetry_multiplicity
 _atom_site_fract_x
 _atom_site_fract_y
 _atom_site_fract_z
 _atom_site_occupancy
  Li+  Li0  4  0.00000000  0.33874589  0.50000000  1
  Li+  Li1  2  0.00000000  0.00000000  0.50000000  1
  Li+  Li2  2  0.00000000  0.50000000  0.00000000  1
  Mn4+  Mn3  4  0.00000000  0.16710705  0.00000000  1
  O2-  O4  8  0.24619581  0.17811417  0.77538607  1
  O2-  O5  4  0.22025788  0.00000000  0.22766565  1
